Circuit: * C:\Users\afzal\OneDrive\Desktop\ltspicetutorials\rc4.asc

Limiting rise time of source v1 to 0.0005
Limiting fall time of source v1 to 0.0005
Direct Newton iteration for .op point succeeded.

Date: Sun Jun 04 12:15:55 2023
Total elapsed time: 0.069 seconds.

tnom = 27
temp = 27
method = modified trap
totiter = 2126
traniter = 2122
tranpoints = 1061
accept = 1057
rejected = 4
matrix size = 4
fillins = 0
solver = Normal
Matrix Compiler1:       5 opcodes  0.1/[0.0]/0.1
Matrix Compiler2: off  [0.0]/0.1/0.1

