Circuit: * C:\Users\afzal\Documents\@AFZAL\professional works\banglore internship\Week1\GmIdMethod\COMMON DRAIN\Assignment_CDAmp.asc

Warning: Pd = 0 is less than W.
Warning: Ps = 0 is less than W.
Direct Newton iteration for .op point succeeded.

Date: Mon Jul 10 14:14:31 2023
Total elapsed time: 0.145 seconds.

tnom = 27
temp = 27
method = trap
totiter = 7
traniter = 0
tranpoints = 0
accept = 0
rejected = 0
matrix size = 5
fillins = 0
solver = Normal
Matrix Compiler1: 204 bytes object code size
Matrix Compiler2: 311 bytes object code size
