Circuit: * C:\Users\afzal\Documents\@AFZAL\professional works\banglore internship\Week1\GmIdMethod\CS AMP (NMOS+PASSIVE)\CSAmp_GBW800Mhz.asc

Warning: Pd = 0 is less than W.
Warning: Ps = 0 is less than W.
Direct Newton iteration for .op point succeeded.

Date: Sat Jul 08 21:21:41 2023
Total elapsed time: 0.133 seconds.

tnom = 27
temp = 27
method = trap
totiter = 5
traniter = 0
tranpoints = 0
accept = 0
rejected = 0
matrix size = 5
fillins = 0
solver = Normal
Matrix Compiler1: 114 bytes object code size
Matrix Compiler2: 301 bytes object code size
